! Blank file in which we can put "overrides" for parameters
!#override DEBUG_IS = True

! 2D
#override NJGLOBAL = 4
#override F_0 = 0.0
#override REENTRANT_Y = True
#override LENLAT = 8.0
#override SOUTHLAT = 36.0

#override DTBT_RESET_PERIOD = 8.64E+04

!control sea level
#override CONST_SEA_LEVEL = True

! ALE
#override IGNORE_FLUXES_OVER_LAND = True
#override USE_REGRIDDING = True
#override REGRIDDING_COORDINATE_MODE = "RHO"
#override INTERPOLATION_SCHEME = "PPM_H4"
#override REMAPPING_SCHEME = "PPM_H4"
#override TRIMMING_USES_REMAPPING = True

! TIME STEP
#override DT = 1800
#override DT_THERM = 3600
#override DT_FORCING = 3600

! MIXING
#override THICKNESSDIFFUSE = False
#override THICKNESSDIFFUSE_FIRST = False
#override SMAGORINSKY_KH = False
#override BIHARMONIC = False
#override KH = 6.0        ! back. horiz. visc.
#override KHTR = 1.0      ! back. horiz. diff.
#override KD = 5.0E-5     ! back. diapycnal diff.
#override KV = 1.0E-3     ! back. diapycnal visc.

!COLD IC
#override ISOMIP_T_SUR = -1.9
#override ISOMIP_S_SUR = 33.8
#override ISOMIP_T_BOT = -1.9
#override ISOMIP_S_BOT = 34.55

! ice shelf
#override SHELF_THERMO = True
#override SHELF_THREE_EQN = True
#override SHELF_3EQ_GAMMA_T = 0.045
SHELF_S_ROOT = True
#override USE_HMIX_SFC_PROP = True
#override HMIX_SFC_PROP = 20.

!IS from Ocean1
#override SURFACE_PRESSURE_FILE = "Ocean1_2D.nc"
#override ICE_THICKNESS_FILE = "Ocean1_2D.nc"

! ML
#override MIXEDLAYER_RESTRAT = False
#override ENERGETICS_SFC_PBL = True
#override MLE_USE_PBL_MLD = True
#override MINIMUM_FORCING_DEPTH = 0.5
#override HMIX_FIXED = 20.0

#override HMIX_MIN = 20.0
#override KV_TBL_MIN = 1.0E-2
#override HTBL_SHELF_MIN = 20.0
#override BOUND_SALINITY = True

! SHEAR MIXING
#override USE_JACKSON_PARAM = True
#override RINO_CRIT = 0.25
!#override KD_KAPPA_SHEAR_0 = 1.0E-2

! WARM SPONGE
#override SPONGE = True
#override ISOMIP_TNUDG = 0.1
#override ISOMIP_S_SUR_SPONGE = 33.8
#override ISOMIP_S_BOT_SPONGE = 34.7
#override ISOMIP_T_SUR_SPONGE = -1.9
#override ISOMIP_T_BOT_SPONGE = 1.0


! PASSIVE TRACERS
USE_ISOMIP_TRACER = True

! Simulation time
!#override DAYMAX = 7300.0
#override DAYMAX = 10
